Circuit: * C:\users\omar\My Documents\University\IX_Semester\Disenio\Easyrun\Circuit Design\LTspice Simulations\Controller.asc

WARNING: Node N009 is floating.

Early termination of direct N-R iteration.
Direct Newton iteration failed to find .op point.  (Use ".option noopiter" to skip.)
Starting Gmin stepping
Gmin = 10
Gmin = 1.07374
vernier = 0.5
vernier = 0.25
vernier = 0.125
vernier = 0.0625
Gmin = 1.08884
vernier = 0.03125
vernier = 0.015625
Gmin = 1.03122
vernier = 0.0078125
vernier = 0.0104167
vernier = 0.00520833
Gmin = 1.01988
vernier = 0.00260417
vernier = 0.00347222
Gmin = 1.01305
vernier = 0.00173611
vernier = 0.00231481
vernier = 0.00115741
Gmin = 1.01114
vernier = 0.00154321
vernier = 0.000771604
Gmin = 1.0091
vernier = 0.00102881
vernier = 0.000514403
Gmin = 1.00748
vernier = 0.00068587
vernier = 0.000514403
Gmin = 1.00627
vernier = 0.00068587
vernier = 0.000514402
Gmin = 0
Gmin stepping failed

Starting source stepping with srcstepmethod=0
Source Step = 3.0303%
Source Step = 33.3333%
Source Step = 63.6364%
Source Step = 93.9394%
Source stepping succeeded in finding the operating point.

Heightened Def Con from 1e-009 ++to 1.14062e-009
Heightened Def Con from 0.283466 +++++++to 0.283466
Heightened Def Con from 0.283466 +to 0.283466
Heightened Def Con from 0.283466 +to 0.283466
Heightened Def Con from 0.283466 +to 0.283466
Heightened Def Con from 0.283466 +to 0.283466
Heightened Def Con from 0.283466 +to 0.283466
Heightened Def Con from 0.283466 +to 0.283466
Heightened Def Con from 0.283466 +to 0.283466
Heightened Def Con from 0.283466 +to 0.283466
Heightened Def Con from 0.283466 +to 0.283466

Date: Thu May 05 10:17:10 2022
Total elapsed time: 1.611 seconds.

tnom = 27
temp = 27
method = modified trap
totiter = 96511
traniter = 90031
tranpoints = 21924
accept = 15596
rejected = 6357
matrix size = 117
fillins = 288
solver = Normal
Thread vector: 5.5/4.1[2] 2.3/2.5[1] 1.7/2.2[1] 0.5/1.2[1]  2592/500
Matrix Compiler1: 18.54 KB object code size  3.2/1.7/[0.8]
Matrix Compiler2: 14.98 KB object code size  1.9/2.3/[0.6]

