Circuit: * C:\users\omar\My Documents\University\IX_Semester\Disenio\Easyrun\Circuit Design\LTspice Simulations\Controller.asc

WARNING: Node N002 is floating.
WARNING: Node NC_13 is floating.

WARNING: Less than two connections to node NC_04.  This node is used by V:U1:§DT.
WARNING: Less than two connections to node NC_13.  This node is used by E:U1:1.
WARNING: Less than two connections to node NC_08.  This node is used by Q:U1:1.
WARNING: Less than two connections to node NC_11.  This node is used by Q:U1:2.
Direct Newton iteration failed to find .op point.  (Use ".option noopiter" to skip.)
Starting Gmin stepping
Increasing initial diagonal Gmin to 100
Gmin = 100
Gmin = 10.7374
Gmin = 1.15292
Gmin = 0.123794
Gmin = 0.0132923
Gmin = 0.00142725
Gmin = 0.00015325
Gmin = 1.6455e-005
Gmin = 1.76685e-006
Gmin = 1.89714e-007
Gmin = 2.03704e-008
Gmin = 2.18725e-009
Gmin = 2.34854e-010
Gmin = 2.52173e-011
Gmin = 2.70769e-012
Gmin = 2.90735e-013
Gmin = 0
Gmin stepping succeeded in finding the operating point.

Ignoring empty pin current: Ix(ea1:1)
Ignoring empty pin current: Ix(ea1:2)
Ignoring empty pin current: Ix(ea1:3)
Ignoring empty pin current: Ix(ea1:4)
Ignoring empty pin current: Ix(ea1:5)
Ignoring empty pin current: Ix(ea2:1)
Ignoring empty pin current: Ix(ea2:2)
Ignoring empty pin current: Ix(ea2:3)
Ignoring empty pin current: Ix(ea2:4)
Ignoring empty pin current: Ix(ea2:5)
Ignoring empty pin current: Ix(u1:1)
Ignoring empty pin current: Ix(u1:2)
Ignoring empty pin current: Ix(u1:3)
Ignoring empty pin current: Ix(u1:5)
Ignoring empty pin current: Ix(u2:1)
Ignoring empty pin current: Ix(u2:2)
Ignoring empty pin current: Ix(u2:3)
Ignoring empty pin current: Ix(u2:4)
Ignoring empty pin current: Ix(u2:5)
Ignoring empty pin current: Ix(ea1:1)
Ignoring empty pin current: Ix(ea1:2)
Ignoring empty pin current: Ix(ea1:3)
Ignoring empty pin current: Ix(ea1:4)
Ignoring empty pin current: Ix(ea1:5)
Ignoring empty pin current: Ix(ea2:1)
Ignoring empty pin current: Ix(ea2:2)
Ignoring empty pin current: Ix(ea2:3)
Ignoring empty pin current: Ix(ea2:4)
Ignoring empty pin current: Ix(ea2:5)
Ignoring empty pin current: Ix(u1:1)
Ignoring empty pin current: Ix(u1:2)
Ignoring empty pin current: Ix(u1:3)
Ignoring empty pin current: Ix(u1:5)
Ignoring empty pin current: Ix(u2:1)
Ignoring empty pin current: Ix(u2:2)
Ignoring empty pin current: Ix(u2:3)
Ignoring empty pin current: Ix(u2:4)
Ignoring empty pin current: Ix(u2:5)

Date: Fri May 06 12:21:39 2022
Total elapsed time: 0.213 seconds.

tnom = 27
temp = 27
method = modified trap
totiter = 7668
traniter = 7117
tranpoints = 2314
accept = 1776
rejected = 538
matrix size = 57
fillins = 29
solver = Normal
Matrix Compiler1: 4.68 KB object code size  0.8/0.5/[0.3]
Matrix Compiler2: 4.60 KB object code size  0.4/0.8/[0.4]

