Circuit: * C:\users\omar\My Documents\University\IX_Semester\Disenio\Easyrun\Circuit Design\LTspice Simulations\Draft1.asc

WARNING: Node NC_09 is floating.

WARNING: Less than two connections to node NC_04.  This node is used by V:U1:§DT.
WARNING: Less than two connections to node NC_09.  This node is used by E:U1:1.
WARNING: Less than two connections to node NC_05.  This node is used by Q:U1:1.
WARNING: Less than two connections to node NC_08.  This node is used by Q:U1:2.
Direct Newton iteration failed to find .op point.  (Use ".option noopiter" to skip.)
Starting Gmin stepping
Increasing initial diagonal Gmin to 100
Gmin = 100
Gmin = 10.7374
Gmin = 1.15292
Gmin = 0.123794
Gmin = 0.0132923
vernier = 0.5
vernier = 0.25
vernier = 0.125
vernier = 0.0625
vernier = 0.03125
vernier = 0.015625
vernier = 0.0078125
vernier = 0.00390625
Gmin = 0.0106338
vernier = 0.00195313
vernier = 0.000976563
vernier = 0.000488281
Gmin = 0
Gmin stepping failed

Starting source stepping with srcstepmethod=0
Source Step = 3.0303%
vernier = 0.25
Source Step = 0.0177557%
Starting source stepping with srcstepmethod=1
Source Step = 3.0303%
vernier = 0.25
Source stepping failed

Pseudo Transient failed in finding the operating point at 13.6307 µs.
Trouble finding operating point....skipping operating point for Transient analysis.
Ignoring empty pin current: Ix(ea1:1)
Ignoring empty pin current: Ix(ea1:2)
Ignoring empty pin current: Ix(ea1:3)
Ignoring empty pin current: Ix(ea1:4)
Ignoring empty pin current: Ix(ea1:5)
Ignoring empty pin current: Ix(ea2:1)
Ignoring empty pin current: Ix(ea2:2)
Ignoring empty pin current: Ix(ea2:3)
Ignoring empty pin current: Ix(ea2:4)
Ignoring empty pin current: Ix(ea2:5)
Ignoring empty pin current: Ix(u1:1)
Ignoring empty pin current: Ix(u1:2)
Ignoring empty pin current: Ix(u1:3)
Ignoring empty pin current: Ix(u1:5)
Ignoring empty pin current: Ix(u2:1)
Ignoring empty pin current: Ix(u2:2)
Ignoring empty pin current: Ix(u2:3)
Ignoring empty pin current: Ix(u2:4)
Ignoring empty pin current: Ix(u2:5)
Changing Tseed to 9.76562e-013
Changing Tseed to 9.76562e-015
Changing Tseed to 9.76562e-012
Changing Tseed to 9.76562e-016
Changing Tseed to 9.76563e-011
Changing Tseed to 9.76562e-017
Changing Tseed to 9.76562e-010
Changing Tseed to 9.76562e-018
Changing Tseed to 9.76562e-009
Changing Tseed to 9.76563e-019
Changing Tseed to 9.76563e-008
Changing Tseed to 9.76563e-020
Fatal Error: Analysis:  Time step too small; initial timepoint: trouble with node "nc_03"

