Circuit: * C:\users\omar\My Documents\University\IX_Semester\Disenio\Easyrun\Circuit Design\LTspice Simulations\Gate_Driver.asc

Limiting rise time of source v2 to 6.25e-007
Limiting fall time of source v2 to 6.25e-007
WARNING: Less than two connections to node 5V0.  This node is used by V3.
Instance "m:u1:_gd_template:_lo_stage:_lo_nmos": Length shorter than recommended for a level 1 MOSFET.
Instance "m:u1:_gd_template:_lo_stage:_lo_pmos": Length shorter than recommended for a level 1 MOSFET.
Instance "m:u1:_gd_template:_ho_stage:_ho_nmos": Length shorter than recommended for a level 1 MOSFET.
Instance "m:u1:_gd_template:_ho_stage:_ho_pmos": Length shorter than recommended for a level 1 MOSFET.
Per .tran options, skipping operating point for transient analysis.
Changing Tseed to 9.76563e-011
Heightened Def Con from 1.02731e-010 to 1.02739e-010
Heightened Def Con from 1.0428e-010 to 2.31233e-010
Heightened Def Con from 2.45065e-010 to 3.24506e-009
Heightened Def Con from 3.26189e-009 to 6.26189e-009
Heightened Def Con from 8.99648e-006 to 8.99648e-006
Heightened Def Con from 8.99648e-006 to 8.99648e-006
Heightened Def Con from 8.99648e-006 to 8.99848e-006
Heightened Def Con from 2.49774e-005 to 2.49804e-005
Heightened Def Con from 0.000132501 to 0.000132503
Heightened Def Con from 0.000137487 to 0.00013749
Heightened Def Con from 0.0001375 to 0.000137502
Heightened Def Con from 0.000138107 to 0.000138109
Heightened Def Con from 0.000138109 to 0.000138111
Heightened Def Con from 0.000138117 to 0.000138119
Heightened Def Con from 0.000138125 to 0.000138127
Heightened Def Con from 0.000149991 to 0.000149994
Heightened Def Con from 0.00015 to 0.000150003
Heightened Def Con from 0.000212465 to 0.000212468
Heightened Def Con from 0.000262461 to 0.000262464
Heightened Def Con from 0.0002625 to 0.000262502
Heightened Def Con from 0.00027 to 0.000270002
Heightened Def Con from 0.000270002 to 0.000270004
Heightened Def Con from 0.000374976 to 0.000374979
Heightened Def Con from 0.000437451 to 0.000437454

Date: Sat May 07 21:47:10 2022
Total elapsed time: 3.171 seconds.

tnom = 27
temp = 27
method = modified trap
totiter = 66489
traniter = 66489
tranpoints = 18918
accept = 13697
rejected = 5244
matrix size = 238
fillins = 119
solver = Normal
Thread vector: 19.4/12.0[4] 6.2/3.3[4] 19.1/13.4[4] 0.7/2.5[1]  2592/500
Matrix Compiler1: 13.20 KB object code size  5.8/3.9/[0.9]
Matrix Compiler2: 17.17 KB object code size  2.6/4.3/[1.0]

