Circuit: * C:\users\omar\My Documents\University\IX_Semester\Disenio\Easyrun\Circuit Design\LTspice Simulations\SupplyOpAmps.asc

WARNING: Node N006 is floating.

WARNING: Less than two connections to node -BATT.  This node is used by V§BATT1.
Early termination of direct N-R iteration.
Direct Newton iteration failed to find .op point.  (Use ".option noopiter" to skip.)
Starting Gmin stepping
Gmin = 10
Gmin = 1.07374
vernier = 0.5
vernier = 0.25
vernier = 0.125
vernier = 0.0625
Gmin = 1.02494
vernier = 0.03125
vernier = 0.015625
vernier = 0.0078125
Gmin = 1.02087
vernier = 0.00390625
vernier = 0.00520833
vernier = 0.00260417
Gmin = 1.01392
vernier = 0.00130208
Gmin = 1.00997
vernier = 0.00173611
vernier = 0.000868055
vernier = 0.00115741
Gmin = 1.00782
vernier = 0.000578703
vernier = 0.000771604
Gmin = 1.00641
vernier = 0.000578703
vernier = 0.000771604
vernier = 0.000578703
Gmin = 1.00549
vernier = 0.000434027
vernier = 0.000578703
vernier = 0.000434027
Gmin = 1.0048
Gmin = 0
Gmin stepping succeeded in finding the operating point.

Changing Tseed to 1e-008
Heightened Def Con from 1e-008 to 1.1e-008

Date: Thu May 05 09:56:55 2022
Total elapsed time: 1.120 seconds.

tnom = 27
temp = 27
method = modified trap
totiter = 29921
traniter = 23997
tranpoints = 6032
accept = 4427
rejected = 1605
matrix size = 82
fillins = 656
solver = Normal
Matrix Compiler1: off  6.1/3.0/[1.4]
Matrix Compiler2: 17.96 KB object code size  1.6/2.2/[0.6]

